Program Version,EnergyPlus, Version 9.6.0-4b123cf80f, YMD=2022.05.17 16:47,
   ************* Beginning Zone Sizing Calculations
   ** Warning ** Weather file location will be used rather than entered (IDF) Location object.
   **   ~~~   ** ..Location object=SITE 1
   **   ~~~   ** ..Weather File Location=Seattle Seattle Tacoma Intl A WA USA TMY3 WMO#=727930
   **   ~~~   ** ..due to location differences, Latitude difference=[47.47] degrees, Longitude difference=[122.32] degrees.
   **   ~~~   ** ..Time Zone difference=[8.0] hour(s), Elevation difference=[12200.00] percent, [122.00] meters.
   ** Warning ** ProcessScheduleInput: Schedule:Day:Interval="APARTMENTMIDRISE APT_DHW_SCH_SMRDSN", Blank Schedule Type Limits Name input -- will not be validated.
   ** Warning ** ProcessScheduleInput: Schedule:Day:Interval="APARTMENTMIDRISE APT_DHW_SCH_WNTRDSN", Blank Schedule Type Limits Name input -- will not be validated.
   ** Warning ** ProcessScheduleInput: Schedule:Day:Interval="APARTMENTMIDRISE INF_APT_SCH_SMRDSN", Blank Schedule Type Limits Name input -- will not be validated.
   ** Warning ** ProcessScheduleInput: Schedule:Day:Interval="APARTMENTMIDRISE INF_APT_SCH_WNTRDSN", Blank Schedule Type Limits Name input -- will not be validated.
   ** Warning ** ProcessScheduleInput: Schedule:Day:Interval="APARTMENTMIDRISE LTG_APT_SCH_SMRDSN", Blank Schedule Type Limits Name input -- will not be validated.
   ** Warning ** ProcessScheduleInput: Schedule:Day:Interval="APARTMENTMIDRISE LTG_APT_SCH_WNTRDSN", Blank Schedule Type Limits Name input -- will not be validated.
   ** Warning ** ProcessScheduleInput: Schedule:Day:Interval="SCHEDULE DAY 2", Blank Schedule Type Limits Name input -- will not be validated.
   ** Warning ** ProcessScheduleInput: Schedule:Day:Interval="SCHEDULE DAY 3", Blank Schedule Type Limits Name input -- will not be validated.
   ** Warning ** ProcessScheduleInput: Schedule:Year="0.05 HOT WATER LATENT FRACTION", Blank Schedule Type Limits Name input -- will not be validated.
   ** Warning ** ProcessScheduleInput: Schedule:Year="0.2 HOT WATER SENSIBLE FRACTION", Blank Schedule Type Limits Name input -- will not be validated.
   ** Warning ** ProcessScheduleInput: Schedule:Constant="ALWAYS OFF DISCRETE", Blank Schedule Type Limits Name input -- will not be validated.
   ** Warning ** ProcessScheduleInput: Schedule:Constant="ALWAYS ON CONTINUOUS", Blank Schedule Type Limits Name input -- will not be validated.
   ** Warning ** GetHTSurfaceData: Surfaces with interface to Ground found but no "Ground Temperatures" were input.
   **   ~~~   ** Found first in surface=ROOM_53_EC09D746..FACE7
   **   ~~~   ** Defaults, constant throughout the year of (18.0) will be used.
   ** Warning ** CheckUsedConstructions: There are 22 nominally unused constructions in input.
   **   ~~~   ** For explicit details on each unused construction, use Output:Diagnostics,DisplayExtraWarnings;
   ** Warning ** Calculation of reflected solar onto surface=ROOM_53_EC09D746..FACE1 may be inaccurate
   **   ~~~   ** because it has one or more vertices below ground level.
   ** Warning ** Calculation of reflected solar onto surface=ROOM_53_EC09D746..FACE2 may be inaccurate
   **   ~~~   ** because it has one or more vertices below ground level.
   ** Warning ** Calculation of reflected solar onto surface=ROOM_53_EC09D746..FACE3 may be inaccurate
   **   ~~~   ** because it has one or more vertices below ground level.
   ** Warning ** Calculation of reflected solar onto surface=ROOM_53_EC09D746..FACE4 may be inaccurate
   **   ~~~   ** because it has one or more vertices below ground level.
   ** Warning ** Calculation of reflected solar onto surface=ROOM_53_EC09D746..FACE5 may be inaccurate
   **   ~~~   ** because it has one or more vertices below ground level.
   ** Warning ** Calculation of reflected solar onto surface=ROOM_53_EC09D746..FACE6 may be inaccurate
   **   ~~~   ** because it has one or more vertices below ground level.
   ** Warning ** Calculation of reflected solar onto surface=APERTURE_D1ECEC1A may be inaccurate
   **   ~~~   ** because it has one or more vertices below ground level.
   ** Warning ** Calculation of reflected solar onto surface=APERTURE_39ADF37A may be inaccurate
   **   ~~~   ** because it has one or more vertices below ground level.
   ** Warning ** Calculation of reflected solar onto surface=APERTURE_0A5C8F35 may be inaccurate
   **   ~~~   ** because it has one or more vertices below ground level.
   ** Warning ** Calculation of reflected solar onto surface=APERTURE_283D32A0 may be inaccurate
   **   ~~~   ** because it has one or more vertices below ground level.
   ** Warning ** Temperature out of range [-100. to 200.] (PsyPsatFnTemp)
   **   ~~~   **  Routine=CalcPurchAirLoads, During Sizing, Environment=SEATTLE SEATTLE TACOMA INTL A ANN HUM_N 99.6% CONDNS DP=>MCDB, at Simulation time=12/21 24:00 - 24:10
   **   ~~~   **  Input Temperature=-1240.82
   ************* Beginning Plant Sizing Calculations
   ************* Testing Individual Branch Integrity
   ************* All Branches passed integrity testing
   ************* Testing Individual Supply Air Path Integrity
   ************* All Supply Air Paths passed integrity testing
   ************* Testing Individual Return Air Path Integrity
   ************* All Return Air Paths passed integrity testing
   ************* No node connection errors were found.
   ************* Beginning Simulation
   ** Warning ** The resource referenced by LifeCycleCost:UsePriceEscalation= "U.S. AVG  COMMERCIAL-ELECTRICITY" has no energy cost. 
   **   ~~~   ** ... It is likely that the wrong resource is used. The resource should match the meter used in Utility:Tariff.
   ** Warning ** The resource referenced by LifeCycleCost:UsePriceEscalation= "U.S. AVG  COMMERCIAL-DISTILLATE OIL" has no energy cost. 
   **   ~~~   ** ... It is likely that the wrong resource is used. The resource should match the meter used in Utility:Tariff.
   ** Warning ** The resource referenced by LifeCycleCost:UsePriceEscalation= "U.S. AVG  COMMERCIAL-RESIDUAL OIL" has no energy cost. 
   **   ~~~   ** ... It is likely that the wrong resource is used. The resource should match the meter used in Utility:Tariff.
   ** Warning ** The resource referenced by LifeCycleCost:UsePriceEscalation= "U.S. AVG  COMMERCIAL-NATURAL GAS" has no energy cost. 
   **   ~~~   ** ... It is likely that the wrong resource is used. The resource should match the meter used in Utility:Tariff.
   ** Warning ** The resource referenced by LifeCycleCost:UsePriceEscalation= "U.S. AVG  COMMERCIAL-COAL" has no energy cost. 
   **   ~~~   ** ... It is likely that the wrong resource is used. The resource should match the meter used in Utility:Tariff.
   ************* Simulation Error Summary *************
   ** Warning ** The following Report Variables were requested but not generated -- check.rdd file
   **   ~~~   ** Either the IDF did not contain these elements, the variable name is misspelled,
   **   ~~~   ** or the requested variable is an advanced output which requires Output : Diagnostics, DisplayAdvancedReportVariables;
   ************* Key=*, VarName=AFN ZONE INFILTRATION SENSIBLE HEAT GAIN ENERGY, Frequency=Hourly
   ************* Key=*, VarName=ZONE OTHER EQUIPMENT LOST HEAT ENERGY, Frequency=Hourly
   ************* Key=*, VarName=ZONE OTHER EQUIPMENT TOTAL HEATING ENERGY, Frequency=Hourly
   ************* Key=*, VarName=ZONE VENTILATION FAN ELECTRICITY ENERGY, Frequency=Hourly
   ************* Key=*, VarName=ZONE VENTILATION TOTAL HEAT GAIN ENERGY, Frequency=Hourly
   ************* Key=*, VarName=AFN ZONE INFILTRATION SENSIBLE HEAT LOSS ENERGY, Frequency=Hourly
   ************* Key=*, VarName=ZONE VENTILATION TOTAL HEAT LOSS ENERGY, Frequency=Hourly
   ************* Key=*, VarName=AFN ZONE VENTILATION SENSIBLE HEAT GAIN ENERGY, Frequency=Hourly
   ************* Key=*, VarName=AFN ZONE VENTILATION SENSIBLE HEAT LOSS ENERGY, Frequency=Hourly
   ************* Key=*, VarName=ZONE GAS EQUIPMENT NATURALGAS ENERGY, Frequency=Hourly
   ************* There are 3 unused schedules in input.
   ************* There are 3 unused week schedules in input